<?xml version="1.0" encoding="UTF-8" standalone="yes"?><template><description>sorts and publishes truck data from a random truck data generator. Created in the IoT tutorial by James. </description><name>Nifi Truck Simulator Flow</name><snippet><connections><id>3f3b1cc9-d8e5-48d8-9547-680d64d1ee61</id><parentGroupId>70f28f5d-09a0-44ba-b1ad-e81982fd770a</parentGroupId><backPressureDataSizeThreshold>0 MB</backPressureDataSizeThreshold><backPressureObjectThreshold>0</backPressureObjectThreshold><destination><groupId>70f28f5d-09a0-44ba-b1ad-e81982fd770a</groupId><id>6f06df23-4031-4edc-a334-c2fe79ff22d0</id><type>PROCESSOR</type></destination><flowFileExpiration>0 sec</flowFileExpiration><labelIndex>1</labelIndex><name></name><selectedRelationships>merged</selectedRelationships><source><groupId>70f28f5d-09a0-44ba-b1ad-e81982fd770a</groupId><id>2ea94ff6-6e04-421b-8de2-a90088da7f40</id><type>PROCESSOR</type></source><zIndex>0</zIndex></connections><connections><id>3d7da65d-f7d0-445d-8f1b-67e52b2353df</id><parentGroupId>70f28f5d-09a0-44ba-b1ad-e81982fd770a</parentGroupId><backPressureDataSizeThreshold>0 MB</backPressureDataSizeThreshold><backPressureObjectThreshold>0</backPressureObjectThreshold><destination><groupId>70f28f5d-09a0-44ba-b1ad-e81982fd770a</groupId><id>2ea94ff6-6e04-421b-8de2-a90088da7f40</id><type>PROCESSOR</type></destination><flowFileExpiration>0 sec</flowFileExpiration><labelIndex>1</labelIndex><name></name><selectedRelationships>unmatched</selectedRelationships><source><groupId>70f28f5d-09a0-44ba-b1ad-e81982fd770a</groupId><id>6cf2e277-b353-43c8-ad32-0ab783bb66af</id><type>PROCESSOR</type></source><zIndex>0</zIndex></connections><connections><id>b050afa1-a014-4a75-8440-44405ab72d0d</id><parentGroupId>70f28f5d-09a0-44ba-b1ad-e81982fd770a</parentGroupId><backPressureDataSizeThreshold>0 MB</backPressureDataSizeThreshold><backPressureObjectThreshold>0</backPressureObjectThreshold><destination><groupId>70f28f5d-09a0-44ba-b1ad-e81982fd770a</groupId><id>77891f98-38ae-4293-b078-434fc29faf61</id><type>PROCESSOR</type></destination><flowFileExpiration>0 sec</flowFileExpiration><labelIndex>1</labelIndex><name></name><selectedRelationships>merged</selectedRelationships><source><groupId>70f28f5d-09a0-44ba-b1ad-e81982fd770a</groupId><id>1a00fc22-cf27-4719-99f2-cebbd53e2b20</id><type>PROCESSOR</type></source><zIndex>0</zIndex></connections><connections><id>b0af7313-96ba-45fa-aed2-9949daebae68</id><parentGroupId>70f28f5d-09a0-44ba-b1ad-e81982fd770a</parentGroupId><backPressureDataSizeThreshold>0 MB</backPressureDataSizeThreshold><backPressureObjectThreshold>0</backPressureObjectThreshold><destination><groupId>70f28f5d-09a0-44ba-b1ad-e81982fd770a</groupId><id>31fad665-96a2-4d41-aeab-e2e89491c89b</id><type>PROCESSOR</type></destination><flowFileExpiration>0 sec</flowFileExpiration><labelIndex>1</labelIndex><name></name><selectedRelationships>success</selectedRelationships><source><groupId>70f28f5d-09a0-44ba-b1ad-e81982fd770a</groupId><id>999be7d6-8cb6-4abc-a293-5e6b361075af</id><type>PROCESSOR</type></source><zIndex>0</zIndex></connections><connections><id>e54d29c5-ead5-4bce-a581-5ab02d6246eb</id><parentGroupId>70f28f5d-09a0-44ba-b1ad-e81982fd770a</parentGroupId><backPressureDataSizeThreshold>0 MB</backPressureDataSizeThreshold><backPressureObjectThreshold>0</backPressureObjectThreshold><destination><groupId>70f28f5d-09a0-44ba-b1ad-e81982fd770a</groupId><id>6cf2e277-b353-43c8-ad32-0ab783bb66af</id><type>PROCESSOR</type></destination><flowFileExpiration>0 sec</flowFileExpiration><labelIndex>1</labelIndex><name></name><selectedRelationships>success</selectedRelationships><source><groupId>70f28f5d-09a0-44ba-b1ad-e81982fd770a</groupId><id>926eef22-8ecd-4369-ba03-add0acbff269</id><type>PROCESSOR</type></source><zIndex>0</zIndex></connections><connections><id>a0caef10-6455-4a5f-91af-1916d43ca36b</id><parentGroupId>70f28f5d-09a0-44ba-b1ad-e81982fd770a</parentGroupId><backPressureDataSizeThreshold>0 MB</backPressureDataSizeThreshold><backPressureObjectThreshold>0</backPressureObjectThreshold><destination><groupId>70f28f5d-09a0-44ba-b1ad-e81982fd770a</groupId><id>00df493f-2273-4fe3-8801-d39d9f3fe558</id><type>PROCESSOR</type></destination><flowFileExpiration>0 sec</flowFileExpiration><labelIndex>1</labelIndex><name></name><selectedRelationships>merged</selectedRelationships><source><groupId>70f28f5d-09a0-44ba-b1ad-e81982fd770a</groupId><id>1a00fc22-cf27-4719-99f2-cebbd53e2b20</id><type>PROCESSOR</type></source><zIndex>0</zIndex></connections><connections><id>0dd9b785-4ad7-448d-a504-083167f77636</id><parentGroupId>70f28f5d-09a0-44ba-b1ad-e81982fd770a</parentGroupId><backPressureDataSizeThreshold>0 MB</backPressureDataSizeThreshold><backPressureObjectThreshold>0</backPressureObjectThreshold><destination><groupId>70f28f5d-09a0-44ba-b1ad-e81982fd770a</groupId><id>926eef22-8ecd-4369-ba03-add0acbff269</id><type>PROCESSOR</type></destination><flowFileExpiration>0 sec</flowFileExpiration><labelIndex>1</labelIndex><name></name><selectedRelationships>splits</selectedRelationships><source><groupId>70f28f5d-09a0-44ba-b1ad-e81982fd770a</groupId><id>31fad665-96a2-4d41-aeab-e2e89491c89b</id><type>PROCESSOR</type></source><zIndex>0</zIndex></connections><connections><id>70cf920e-009d-4a28-aafb-795600a3598d</id><parentGroupId>70f28f5d-09a0-44ba-b1ad-e81982fd770a</parentGroupId><backPressureDataSizeThreshold>0 MB</backPressureDataSizeThreshold><backPressureObjectThreshold>0</backPressureObjectThreshold><destination><groupId>70f28f5d-09a0-44ba-b1ad-e81982fd770a</groupId><id>1a00fc22-cf27-4719-99f2-cebbd53e2b20</id><type>PROCESSOR</type></destination><flowFileExpiration>0 sec</flowFileExpiration><labelIndex>1</labelIndex><name></name><selectedRelationships>search_for_truck_event_data</selectedRelationships><source><groupId>70f28f5d-09a0-44ba-b1ad-e81982fd770a</groupId><id>6cf2e277-b353-43c8-ad32-0ab783bb66af</id><type>PROCESSOR</type></source><zIndex>0</zIndex></connections><processors><id>999be7d6-8cb6-4abc-a293-5e6b361075af</id><parentGroupId>70f28f5d-09a0-44ba-b1ad-e81982fd770a</parentGroupId><position><x>156.9840423750628</x><y>-73.28356591726225</y></position><config><bulletinLevel>WARN</bulletinLevel><comments></comments><concurrentlySchedulableTaskCount>1</concurrentlySchedulableTaskCount><defaultConcurrentTasks><entry><key>TIMER_DRIVEN</key><value>1</value></entry><entry><key>EVENT_DRIVEN</key><value>0</value></entry><entry><key>CRON_DRIVEN</key><value>1</value></entry></defaultConcurrentTasks><defaultSchedulingPeriod><entry><key>TIMER_DRIVEN</key><value>0 sec</value></entry><entry><key>CRON_DRIVEN</key><value>* * * * * ?</value></entry></defaultSchedulingPeriod><descriptors><entry><key>Command</key><value><description>Specifies the command to be executed; if just the name of an executable is provided, it must be in the user's environment PATH.</description><displayName>Command</displayName><dynamic>false</dynamic><name>Command</name><required>true</required><sensitive>false</sensitive><supportsEl>false</supportsEl></value></entry><entry><key>Command Arguments</key><value><description>The arguments to supply to the executable delimited by white space. White space can be escaped by enclosing it in double-quotes.</description><displayName>Command Arguments</displayName><dynamic>false</dynamic><name>Command Arguments</name><required>false</required><sensitive>false</sensitive><supportsEl>false</supportsEl></value></entry><entry><key>Batch Duration</key><value><description>If the process is expected to be long-running and produce textual output, a batch duration can be specified so that the output will be captured for this amount of time and a FlowFile will then be sent out with the results and a new FlowFile will be started, rather than waiting for the process to finish before sending out the results</description><displayName>Batch Duration</displayName><dynamic>false</dynamic><name>Batch Duration</name><required>false</required><sensitive>false</sensitive><supportsEl>false</supportsEl></value></entry><entry><key>Redirect Error Stream</key><value><allowableValues><displayName>true</displayName><value>true</value></allowableValues><allowableValues><displayName>false</displayName><value>false</value></allowableValues><defaultValue>false</defaultValue><description>If true will redirect any error stream output of the process to the output stream. This is particularly helpful for processes which write extensively to the error stream or for troubleshooting.</description><displayName>Redirect Error Stream</displayName><dynamic>false</dynamic><name>Redirect Error Stream</name><required>false</required><sensitive>false</sensitive><supportsEl>false</supportsEl></value></entry><entry><key>Argument Delimiter</key><value><defaultValue> </defaultValue><description>Delimiter to use to separate arguments for a command [default: space]. Must be a single character.</description><displayName>Argument Delimiter</displayName><dynamic>false</dynamic><name>Argument Delimiter</name><required>true</required><sensitive>false</sensitive><supportsEl>false</supportsEl></value></entry></descriptors><lossTolerant>false</lossTolerant><penaltyDuration>30 sec</penaltyDuration><properties><entry><key>Command</key><value>sh</value></entry><entry><key>Command Arguments</key><value>/root/iot-truck-streaming/stream-simulator/generate.sh

</value></entry><entry><key>Batch Duration</key><value>10 sec</value></entry><entry><key>Redirect Error Stream</key><value>false</value></entry><entry><key>Argument Delimiter</key><value> </value></entry></properties><runDurationMillis>0</runDurationMillis><schedulingPeriod>1 sec</schedulingPeriod><schedulingStrategy>TIMER_DRIVEN</schedulingStrategy><yieldDuration>1 sec</yieldDuration></config><name>ExecuteProcess</name><relationships><autoTerminate>false</autoTerminate><description>All created FlowFiles are routed to this relationship</description><name>success</name></relationships><state>STOPPED</state><style/><supportsEventDriven>false</supportsEventDriven><supportsParallelProcessing>true</supportsParallelProcessing><type>org.apache.nifi.processors.standard.ExecuteProcess</type></processors><processors><id>6cf2e277-b353-43c8-ad32-0ab783bb66af</id><parentGroupId>70f28f5d-09a0-44ba-b1ad-e81982fd770a</parentGroupId><position><x>647.4188662161665</x><y>111.2694893271622</y></position><config><bulletinLevel>WARN</bulletinLevel><comments></comments><concurrentlySchedulableTaskCount>1</concurrentlySchedulableTaskCount><defaultConcurrentTasks><entry><key>TIMER_DRIVEN</key><value>1</value></entry><entry><key>EVENT_DRIVEN</key><value>0</value></entry><entry><key>CRON_DRIVEN</key><value>1</value></entry></defaultConcurrentTasks><defaultSchedulingPeriod><entry><key>TIMER_DRIVEN</key><value>0 sec</value></entry><entry><key>CRON_DRIVEN</key><value>* * * * * ?</value></entry></defaultSchedulingPeriod><descriptors><entry><key>Match Requirement</key><value><allowableValues><displayName>content must match exactly</displayName><value>content must match exactly</value></allowableValues><allowableValues><displayName>content must contain match</displayName><value>content must contain match</value></allowableValues><defaultValue>content must match exactly</defaultValue><description>Specifies whether the entire content of the file must match the regular expression exactly, or if any part of the file (up to Content Buffer Size) can contain the regular expression in order to be considered a match</description><displayName>Match Requirement</displayName><dynamic>false</dynamic><name>Match Requirement</name><required>true</required><sensitive>false</sensitive><supportsEl>false</supportsEl></value></entry><entry><key>Character Set</key><value><defaultValue>UTF-8</defaultValue><description>The Character Set in which the file is encoded</description><displayName>Character Set</displayName><dynamic>false</dynamic><name>Character Set</name><required>true</required><sensitive>false</sensitive><supportsEl>false</supportsEl></value></entry><entry><key>Content Buffer Size</key><value><defaultValue>1 MB</defaultValue><description>Specifies the maximum amount of data to buffer in order to apply the regular expressions. If the size of the FlowFile exceeds this value, any amount of this value will be ignored</description><displayName>Content Buffer Size</displayName><dynamic>false</dynamic><name>Content Buffer Size</name><required>true</required><sensitive>false</sensitive><supportsEl>false</supportsEl></value></entry><entry><key>search_for_truck_event_data</key><value><description></description><displayName>search_for_truck_event_data</displayName><dynamic>true</dynamic><name>search_for_truck_event_data</name><required>false</required><sensitive>false</sensitive><supportsEl>true</supportsEl></value></entry></descriptors><lossTolerant>false</lossTolerant><penaltyDuration>30 sec</penaltyDuration><properties><entry><key>Match Requirement</key><value>content must contain match</value></entry><entry><key>Character Set</key><value>UTF-8</value></entry><entry><key>Content Buffer Size</key><value>1 MB</value></entry><entry><key>search_for_truck_event_data</key><value>(Normal)|(Overspeed)|(Lane Departure)|(Unsafe tail distance)|(Unsafe following distance)
</value></entry></properties><runDurationMillis>0</runDurationMillis><schedulingPeriod>0 sec</schedulingPeriod><schedulingStrategy>TIMER_DRIVEN</schedulingStrategy><yieldDuration>1 sec</yieldDuration></config><name>RouteOnContent</name><relationships><autoTerminate>false</autoTerminate><description></description><name>search_for_truck_event_data</name></relationships><relationships><autoTerminate>false</autoTerminate><description>FlowFiles that do not match any of the user-supplied regular expressions will be routed to this relationship</description><name>unmatched</name></relationships><state>STOPPED</state><style/><supportsEventDriven>true</supportsEventDriven><supportsParallelProcessing>true</supportsParallelProcessing><type>org.apache.nifi.processors.standard.RouteOnContent</type></processors><processors><id>1a00fc22-cf27-4719-99f2-cebbd53e2b20</id><parentGroupId>70f28f5d-09a0-44ba-b1ad-e81982fd770a</parentGroupId><position><x>643.4043440591528</x><y>341.7266232360744</y></position><config><bulletinLevel>WARN</bulletinLevel><comments></comments><concurrentlySchedulableTaskCount>1</concurrentlySchedulableTaskCount><defaultConcurrentTasks><entry><key>TIMER_DRIVEN</key><value>1</value></entry><entry><key>EVENT_DRIVEN</key><value>0</value></entry><entry><key>CRON_DRIVEN</key><value>1</value></entry></defaultConcurrentTasks><defaultSchedulingPeriod><entry><key>TIMER_DRIVEN</key><value>0 sec</value></entry><entry><key>CRON_DRIVEN</key><value>* * * * * ?</value></entry></defaultSchedulingPeriod><descriptors><entry><key>Merge Strategy</key><value><allowableValues><description>Generates 'bins' of FlowFiles and fills each bin as full as possible. FlowFiles are placed into a bin based on their size and optionally their attributes (if the &lt;Correlation Attribute&gt; property is set)</description><displayName>Bin-Packing Algorithm</displayName><value>Bin-Packing Algorithm</value></allowableValues><allowableValues><description>Combines fragments that are associated by attributes back into a single cohesive FlowFile. If using this strategy, all FlowFiles must have the attributes &lt;fragment.identifier&gt;, &lt;fragment.count&gt;, and &lt;fragment.index&gt; or alternatively (for backward compatibility purposes) &lt;segment.identifier&gt;, &lt;segment.count&gt;, and &lt;segment.index&gt;. All FlowFiles with the same value for &quot;fragment.identifier&quot; will be grouped together. All FlowFiles in this group must have the same value for the &quot;fragment.count&quot; attribute. All FlowFiles in this group must have a unique value for the &quot;fragment.index&quot; attribute between 0 and the value of the &quot;fragment.count&quot; attribute.</description><displayName>Defragment</displayName><value>Defragment</value></allowableValues><defaultValue>Bin-Packing Algorithm</defaultValue><description>Specifies the algorithm used to merge content. The 'Defragment' algorithm combines fragments that are associated by attributes back into a single cohesive FlowFile. The 'Bin-Packing Algorithm' generates a FlowFile populated by arbitrarily chosen FlowFiles</description><displayName>Merge Strategy</displayName><dynamic>false</dynamic><name>Merge Strategy</name><required>true</required><sensitive>false</sensitive><supportsEl>false</supportsEl></value></entry><entry><key>Merge Format</key><value><allowableValues><description>A bin of FlowFiles will be combined into a single TAR file. The FlowFiles' &lt;path&gt; attribute will be used to create a directory in the TAR file if the &lt;Keep Paths&gt; property is set to true; otherwise, all FlowFiles will be added at the root of the TAR file. If a FlowFile has an attribute named &lt;tar.permissions&gt; that is 3 characters, each between 0-7, that attribute will be used as the TAR entry's 'mode'.</description><displayName>TAR</displayName><value>TAR</value></allowableValues><allowableValues><description>A bin of FlowFiles will be combined into a single ZIP file. The FlowFiles' &lt;path&gt; attribute will be used to create a directory in the ZIP file if the &lt;Keep Paths&gt; property is set to true; otherwise, all FlowFiles will be added at the root of the ZIP file. The &lt;Compression Level&gt; property indicates the ZIP compression to use.</description><displayName>ZIP</displayName><value>ZIP</value></allowableValues><allowableValues><description>A bin of FlowFiles will be combined into a single Version 3 FlowFile Stream</description><displayName>FlowFile Stream, v3</displayName><value>FlowFile Stream, v3</value></allowableValues><allowableValues><description>A bin of FlowFiles will be combined into a single Version 2 FlowFile Stream</description><displayName>FlowFile Stream, v2</displayName><value>FlowFile Stream, v2</value></allowableValues><allowableValues><description>A bin of FlowFiles will be combined into a single Version 1 FlowFile Package</description><displayName>FlowFile Tar, v1</displayName><value>FlowFile Tar, v1</value></allowableValues><allowableValues><description>The contents of all FlowFiles will be concatenated together into a single FlowFile</description><displayName>Binary Concatenation</displayName><value>Binary Concatenation</value></allowableValues><allowableValues><description>The Avro contents of all FlowFiles will be concatenated together into a single FlowFile</description><displayName>Avro</displayName><value>Avro</value></allowableValues><defaultValue>Binary Concatenation</defaultValue><description>Determines the format that will be used to merge the content.</description><displayName>Merge Format</displayName><dynamic>false</dynamic><name>Merge Format</name><required>true</required><sensitive>false</sensitive><supportsEl>false</supportsEl></value></entry><entry><key>Attribute Strategy</key><value><allowableValues><displayName>Keep Only Common Attributes</displayName><value>Keep Only Common Attributes</value></allowableValues><allowableValues><displayName>Keep All Unique Attributes</displayName><value>Keep All Unique Attributes</value></allowableValues><defaultValue>Keep Only Common Attributes</defaultValue><description>Determines which FlowFile attributes should be added to the bundle. If 'Keep All Unique Attributes' is selected, any attribute on any FlowFile that gets bundled will be kept unless its value conflicts with the value from another FlowFile. If 'Keep Only Common Attributes' is selected, only the attributes that exist on all FlowFiles in the bundle, with the same value, will be preserved.</description><displayName>Attribute Strategy</displayName><dynamic>false</dynamic><name>Attribute Strategy</name><required>true</required><sensitive>false</sensitive><supportsEl>false</supportsEl></value></entry><entry><key>Correlation Attribute Name</key><value><description>If specified, like FlowFiles will be binned together, where 'like FlowFiles' means FlowFiles that have the same value for this Attribute. If not specified, FlowFiles are bundled by the order in which they are pulled from the queue.</description><displayName>Correlation Attribute Name</displayName><dynamic>false</dynamic><name>Correlation Attribute Name</name><required>false</required><sensitive>false</sensitive><supportsEl>true</supportsEl></value></entry><entry><key>Minimum Number of Entries</key><value><defaultValue>1</defaultValue><description>The minimum number of files to include in a bundle</description><displayName>Minimum Number of Entries</displayName><dynamic>false</dynamic><name>Minimum Number of Entries</name><required>true</required><sensitive>false</sensitive><supportsEl>false</supportsEl></value></entry><entry><key>Maximum Number of Entries</key><value><description>The maximum number of files to include in a bundle. If not specified, there is no maximum.</description><displayName>Maximum Number of Entries</displayName><dynamic>false</dynamic><name>Maximum Number of Entries</name><required>false</required><sensitive>false</sensitive><supportsEl>false</supportsEl></value></entry><entry><key>Minimum Group Size</key><value><defaultValue>0 B</defaultValue><description>The minimum size of for the bundle</description><displayName>Minimum Group Size</displayName><dynamic>false</dynamic><name>Minimum Group Size</name><required>true</required><sensitive>false</sensitive><supportsEl>false</supportsEl></value></entry><entry><key>Maximum Group Size</key><value><description>The maximum size for the bundle. If not specified, there is no maximum.</description><displayName>Maximum Group Size</displayName><dynamic>false</dynamic><name>Maximum Group Size</name><required>false</required><sensitive>false</sensitive><supportsEl>false</supportsEl></value></entry><entry><key>Max Bin Age</key><value><description>The maximum age of a Bin that will trigger a Bin to be complete. Expected format is &lt;duration&gt; &lt;time unit&gt; where &lt;duration&gt; is a positive integer and time unit is one of seconds, minutes, hours</description><displayName>Max Bin Age</displayName><dynamic>false</dynamic><name>Max Bin Age</name><required>false</required><sensitive>false</sensitive><supportsEl>false</supportsEl></value></entry><entry><key>Maximum number of Bins</key><value><defaultValue>100</defaultValue><description>Specifies the maximum number of bins that can be held in memory at any one time</description><displayName>Maximum number of Bins</displayName><dynamic>false</dynamic><name>Maximum number of Bins</name><required>true</required><sensitive>false</sensitive><supportsEl>false</supportsEl></value></entry><entry><key>Delimiter Strategy</key><value><allowableValues><description>The values of Header, Footer, and Demarcator will be retrieved from the contents of a file</description><displayName>Filename</displayName><value>Filename</value></allowableValues><allowableValues><description>The values of Header, Footer, and Demarcator will be specified as property values</description><displayName>Text</displayName><value>Text</value></allowableValues><defaultValue>Filename</defaultValue><description>Determines if Header, Footer, and Demarcator should point to files containing the respective content, or if the values of the properties should be used as the content.</description><displayName>Delimiter Strategy</displayName><dynamic>false</dynamic><name>Delimiter Strategy</name><required>true</required><sensitive>false</sensitive><supportsEl>false</supportsEl></value></entry><entry><key>Header File</key><value><description>Filename specifying the header to use. If not specified, no header is supplied. This property is valid only when using the binary-concatenation merge strategy; otherwise, it is ignored.</description><displayName>Header</displayName><dynamic>false</dynamic><name>Header File</name><required>false</required><sensitive>false</sensitive><supportsEl>true</supportsEl></value></entry><entry><key>Footer File</key><value><description>Filename specifying the footer to use. If not specified, no footer is supplied. This property is valid only when using the binary-concatenation merge strategy; otherwise, it is ignored.</description><displayName>Footer</displayName><dynamic>false</dynamic><name>Footer File</name><required>false</required><sensitive>false</sensitive><supportsEl>true</supportsEl></value></entry><entry><key>Demarcator File</key><value><description>Filename specifying the demarcator to use. If not specified, no demarcator is supplied. This property is valid only when using the binary-concatenation merge strategy; otherwise, it is ignored.</description><displayName>Demarcator</displayName><dynamic>false</dynamic><name>Demarcator File</name><required>false</required><sensitive>false</sensitive><supportsEl>true</supportsEl></value></entry><entry><key>Compression Level</key><value><allowableValues><displayName>0</displayName><value>0</value></allowableValues><allowableValues><displayName>1</displayName><value>1</value></allowableValues><allowableValues><displayName>2</displayName><value>2</value></allowableValues><allowableValues><displayName>3</displayName><value>3</value></allowableValues><allowableValues><displayName>4</displayName><value>4</value></allowableValues><allowableValues><displayName>5</displayName><value>5</value></allowableValues><allowableValues><displayName>6</displayName><value>6</value></allowableValues><allowableValues><displayName>7</displayName><value>7</value></allowableValues><allowableValues><displayName>8</displayName><value>8</value></allowableValues><allowableValues><displayName>9</displayName><value>9</value></allowableValues><defaultValue>1</defaultValue><description>Specifies the compression level to use when using the Zip Merge Format; if not using the Zip Merge Format, this value is ignored</description><displayName>Compression Level</displayName><dynamic>false</dynamic><name>Compression Level</name><required>true</required><sensitive>false</sensitive><supportsEl>false</supportsEl></value></entry><entry><key>Keep Path</key><value><allowableValues><displayName>true</displayName><value>true</value></allowableValues><allowableValues><displayName>false</displayName><value>false</value></allowableValues><defaultValue>false</defaultValue><description>If using the Zip or Tar Merge Format, specifies whether or not the FlowFiles' paths should be included in their entry names; if using other merge strategy, this value is ignored</description><displayName>Keep Path</displayName><dynamic>false</dynamic><name>Keep Path</name><required>true</required><sensitive>false</sensitive><supportsEl>false</supportsEl></value></entry></descriptors><lossTolerant>false</lossTolerant><penaltyDuration>30 sec</penaltyDuration><properties><entry><key>Merge Strategy</key><value>Bin-Packing Algorithm</value></entry><entry><key>Merge Format</key><value>Binary Concatenation</value></entry><entry><key>Attribute Strategy</key><value>Keep Only Common Attributes</value></entry><entry><key>Correlation Attribute Name</key></entry><entry><key>Minimum Number of Entries</key><value>50</value></entry><entry><key>Maximum Number of Entries</key><value>70</value></entry><entry><key>Minimum Group Size</key><value>0 B</value></entry><entry><key>Maximum Group Size</key></entry><entry><key>Max Bin Age</key></entry><entry><key>Maximum number of Bins</key><value>100</value></entry><entry><key>Delimiter Strategy</key><value>Filename</value></entry><entry><key>Header File</key></entry><entry><key>Footer File</key></entry><entry><key>Demarcator File</key></entry><entry><key>Compression Level</key><value>1</value></entry><entry><key>Keep Path</key><value>false</value></entry></properties><runDurationMillis>0</runDurationMillis><schedulingPeriod>0 sec</schedulingPeriod><schedulingStrategy>TIMER_DRIVEN</schedulingStrategy><yieldDuration>1 sec</yieldDuration></config><name>MergeContent(truck_events)</name><relationships><autoTerminate>true</autoTerminate><description>If the bundle cannot be created, all FlowFiles that would have been used to created the bundle will be transferred to failure</description><name>failure</name></relationships><relationships><autoTerminate>false</autoTerminate><description>The FlowFile containing the merged content</description><name>merged</name></relationships><relationships><autoTerminate>true</autoTerminate><description>The FlowFiles that were used to create the bundle</description><name>original</name></relationships><state>STOPPED</state><style/><supportsEventDriven>false</supportsEventDriven><supportsParallelProcessing>true</supportsParallelProcessing><type>org.apache.nifi.processors.standard.MergeContent</type></processors><processors><id>00df493f-2273-4fe3-8801-d39d9f3fe558</id><parentGroupId>70f28f5d-09a0-44ba-b1ad-e81982fd770a</parentGroupId><position><x>307.85613993060247</x><y>508.56916007122106</y></position><config><bulletinLevel>WARN</bulletinLevel><comments></comments><concurrentlySchedulableTaskCount>1</concurrentlySchedulableTaskCount><defaultConcurrentTasks><entry><key>TIMER_DRIVEN</key><value>1</value></entry><entry><key>EVENT_DRIVEN</key><value>0</value></entry><entry><key>CRON_DRIVEN</key><value>1</value></entry></defaultConcurrentTasks><defaultSchedulingPeriod><entry><key>TIMER_DRIVEN</key><value>0 sec</value></entry><entry><key>CRON_DRIVEN</key><value>* * * * * ?</value></entry></defaultSchedulingPeriod><descriptors><entry><key>Known Brokers</key><value><description>A comma-separated list of known Kafka Brokers in the format &lt;host&gt;:&lt;port&gt;</description><displayName>Known Brokers</displayName><dynamic>false</dynamic><name>Known Brokers</name><required>true</required><sensitive>false</sensitive><supportsEl>false</supportsEl></value></entry><entry><key>Topic Name</key><value><description>The Kafka Topic of interest</description><displayName>Topic Name</displayName><dynamic>false</dynamic><name>Topic Name